%mem=500MB
%chk=ethanol.chk
%nproc=1
#p B3LYP/6-31G(d) sp scf(fermi,tight) density(current)

ethanol

0  1
 O  1.240676820 -0.260448261 -0.109953968
 C  0.084491583  0.555881289  0.047134350
 C -1.216343849 -0.239409016 -0.021855889
 H  0.129714837  1.129481681  0.987653092
 H  0.129834522  1.279971291 -0.772961062
 H -2.086922819  0.423728645  0.050129390
 H -1.276589410 -0.793335390 -0.964465494
 H -1.280904792 -0.961804252  0.802593880
 H  1.250566713 -0.893289509  0.625011174

